[General]
network = networkNED
sim-time-limit = 60s

*.wirelessHost[*].wlan.mac.useRtsCts = true
*.wirelessHost[*].wlan.mac.rtsCtsThreshold = 0B   # always use RTS/CTS

*.accessPoint.wlan.mac.useRtsCts = true
*.accessPoint.wlan.mac.maxQueueSize = 10  # resource constraint
